/*--------------------------------*- C++ -*----------------------------------*\
  =========                 |
  \\      /  F ield         | OpenFOAM: The Open Source CFD Toolbox
   \\    /   O peration     | Website:  https://openfoam.org
    \\  /    A nd           | Version:  10
     \\/     M anipulation  |
\*---------------------------------------------------------------------------*/
FoamFile
{
    format      ascii;
    class       dictionary;
    location    "system";
    object      controlDict;
}
// * * * * * * * * * * * * * * * * * * * * * * * * * * * * * * * * * * * * * //

application     foamRun;

// For steady-state velocity
// solver          incompressibleFluid;

// For tracer
solver          functions;
subSolver       incompressibleFluid;

startFrom       latestTime;

startTime       0;

stopAt          endTime;

endTime         300;

deltaT          0.2;

writeControl    runTime;

writeInterval   0.2;

purgeWrite      0;

writeFormat     ascii;

writePrecision  6;

writeCompression off;

timeFormat      general;

timePrecision   6;

runTimeModifiable true;

functions{
	#includeFunc writeCellVolumes 
    #includeFunc scalarTransport(T, diffusivity=constant, D = 0.00001)
}

// ************************************************************************* //
